@<TRIPOS>MOLECULE
lig
 41 43 0 0 0
SMALL
GASTEIGER

@<TRIPOS>ATOM
      1 C1          2.0106   -1.3824    0.5492 C.ar  1    UNL111       0.0504
      2 C2          1.1404   -2.5158    0.5578 C.ar  1    UNL111      -0.0427
      3 C3         -0.2310   -2.4067    0.1534 C.ar  1    UNL111      -0.0584
      4 C4         -0.8011   -1.1530   -0.2271 C.ar  1    UNL111      -0.0377
      5 C5          0.0584   -0.0138   -0.1424 C.ar  1    UNL111       0.0486
      6 C6          1.4201   -0.1308    0.1924 C.ar  1    UNL111       0.0218
      7 N          -0.2426    1.2895   -0.2668 N.ar  1    UNL111      -0.3530
      8 CA          0.8863    2.0018   -0.0569 C.ar  1    UNL111       0.0661
      9 C7          1.9616    1.1487    0.2114 C.ar  1    UNL111      -0.0117
     10 C8          0.9675    3.3887   -0.1013 C.2   1    UNL111       0.0881
     11 O1         -0.1343    4.1211   -0.3699 O.co2 1    UNL111      -0.5431
     12 OXT         2.0607    3.9578    0.1074 O.co2 1    UNL111      -0.5431
     13 C9          3.3514    1.5216    0.4580 C.3   1    UNL111      -0.0219
     14 C10         4.1132    1.5560   -0.8684 C.3   1    UNL111      -0.0146
     15 C11         5.5697    1.9468   -0.6100 C.3   1    UNL111       0.0899
     16 O2          6.2768    1.9787   -1.8410 O.3   1    UNL111      -0.4919
     17 C12         7.5619    2.3236   -1.6130 C.ar  1    UNL111       0.1208
     18 C13         8.4542    2.4211   -2.6744 C.ar  1    UNL111      -0.0156
     19 C14         9.7774    2.7761   -2.4397 C.ar  1    UNL111      -0.0287
     20 C15        10.2084    3.0337   -1.1435 C.ar  1    UNL111       0.0441
     21 C16         9.3162    2.9362   -0.0821 C.ar  1    UNL111      -0.0397
     22 C17         7.9930    2.5811   -0.3169 C.ar  1    UNL111      -0.0185
     23 C18        10.7145    2.8786   -3.5545 C.3   1    UNL111      -0.0382
     24 H1          8.1379    2.2321   -3.6256 H     1    UNL111       0.0657
     25 CL1        11.8143    3.4646   -0.8586 Cl    1    UNL111      -0.0833
     26 H2          7.3382    2.5096    0.4620 H     1    UNL111       0.0654
     27 H3         -1.7682   -1.0752   -0.5418 H     1    UNL111       0.0638
     28 H4          3.3862    2.5070    0.9226 H     1    UNL111       0.0315
     29 H5          3.8115    0.7902    1.1224 H     1    UNL111       0.0315
     30 H6          3.6532    2.2875   -1.5328 H     1    UNL111       0.0301
     31 H7          4.0784    0.5706   -1.3331 H     1    UNL111       0.0301
     32 H8          5.6046    2.9322   -0.1454 H     1    UNL111       0.0696
     33 H9          6.0298    1.2154    0.0544 H     1    UNL111       0.0696
     34 CL2         3.6466   -1.5147    0.9393 Cl    1    UNL111      -0.0829
     35 H10         1.5021   -3.4210    0.8577 H     1    UNL111       0.0632
     36 H11        -0.8133   -3.2440    0.1370 H     1    UNL111       0.0619
     37 H12         9.6325    3.1252    0.8690 H     1    UNL111       0.0633
     38 H13        -1.1173    1.6553   -0.4715 H     1    UNL111       0.1659
     39 H14        10.3607    3.6317   -4.2586 H     1    UNL111       0.0278
     40 H15        10.7860    1.9149   -4.0588 H     1    UNL111       0.0278
     41 H16        11.6965    3.1655   -3.1785 H     1    UNL111       0.0278
@<TRIPOS>BOND
     1     1     2   ar
     2     2     3   ar
     3     3     4   ar
     4     4     5   ar
     5     5     6   ar
     6     6     1   ar
     7     8     9   ar
     8     6     9   ar
     9     7     8   ar
    10     5     7   ar
    11     8    10    1
    12    10    11   ar
    13    10    12   ar
    14     9    13    1
    15    13    14    1
    16    14    15    1
    17    15    16    1
    18    16    17    1
    19    18    19   ar
    20    19    20   ar
    21    20    21   ar
    22    21    22   ar
    23    17    18   ar
    24    22    17   ar
    25    18    24    1
    26    22    26    1
    27     4    27    1
    28    13    28    1
    29    13    29    1
    30    14    30    1
    31    14    31    1
    32    15    32    1
    33    15    33    1
    34    20    25    1
    35     2    35    1
    36     3    36    1
    37    21    37    1
    38     7    38    1
    39     1    34    1
    40    19    23    1
    41    23    39    1
    42    23    40    1
    43    23    41    1
