@<TRIPOS>MOLECULE
lig
 47 49 0 0 0
SMALL
GASTEIGER

@<TRIPOS>ATOM
      1 C1          1.5434   -0.9788   -0.3255 C.ar  1    UNL111      -0.0523
      2 C2          0.6226   -2.0678   -0.4141 C.ar  1    UNL111      -0.0611
      3 C3         -0.6797   -1.8990   -0.9899 C.ar  1    UNL111      -0.0598
      4 C4         -1.1331   -0.6258   -1.4537 C.ar  1    UNL111      -0.0376
      5 C5         -0.2342    0.4713   -1.2740 C.ar  1    UNL111       0.0496
      6 C6          1.0668    0.2937   -0.7684 C.ar  1    UNL111       0.0037
      7 N          -0.4506    1.7854   -1.4504 N.ar  1    UNL111      -0.3418
      8 C7          0.6776    2.4451   -1.1075 C.ar  1    UNL111       0.0684
      9 C8          1.6659    1.5453   -0.6957 C.ar  1    UNL111      -0.0129
     10 C9          0.8341    3.8254   -1.1572 C.2   1    UNL111       0.0883
     11 O1          1.6682    4.4417   -0.2929 O.co2 1    UNL111      -0.5431
     12 O2          0.2026    4.4960   -2.0021 O.co2 1    UNL111      -0.5431
     13 C10         3.0308    1.8541   -0.2796 C.3   1    UNL111      -0.0220
     14 C11         3.9542    1.8276   -1.4993 C.3   1    UNL111      -0.0146
     15 C12         5.3846    2.1512   -1.0632 C.3   1    UNL111       0.0899
     16 O3          6.2415    2.1266   -2.1952 O.3   1    UNL111      -0.4919
     17 C13         7.5036    2.4121   -1.8105 C.ar  1    UNL111       0.1211
     18 C14         8.5260    2.4469   -2.7515 C.ar  1    UNL111      -0.0156
     19 C15         9.8255    2.7409   -2.3554 C.ar  1    UNL111      -0.0284
     20 C16        10.1027    3.0000   -1.0182 C.ar  1    UNL111       0.0470
     21 C17         9.0803    2.9651   -0.0771 C.ar  1    UNL111      -0.0284
     22 C18         7.7808    2.6712   -0.4732 C.ar  1    UNL111      -0.0156
     23 C19        10.8994    2.7775   -3.3438 C.3   1    UNL111      -0.0382
     24 H1          8.3227    2.2568   -3.7328 H     1    UNL111       0.0657
     25 CL         11.6798    3.3568   -0.5374 Cl    1    UNL111      -0.0830
     26 H2          7.0305    2.6456    0.2173 H     1    UNL111       0.0657
     27 H3         -2.0477   -0.5063   -1.8891 H     1    UNL111       0.0638
     28 H4          3.0570    2.8447    0.1745 H     1    UNL111       0.0315
     29 H5          3.3660    1.1129    0.4460 H     1    UNL111       0.0315
     30 H6          3.6190    2.5688   -2.2248 H     1    UNL111       0.0301
     31 H7          3.9280    0.8370   -1.9533 H     1    UNL111       0.0301
     32 H8          5.4107    3.1417   -0.6092 H     1    UNL111       0.0696
     33 H9          5.7197    1.4100   -0.3377 H     1    UNL111       0.0696
     34 H10         2.4897   -1.1029    0.0345 H     1    UNL111       0.0624
     35 H11         0.8973   -2.9843   -0.0605 H     1    UNL111       0.0618
     36 H12        -1.2971   -2.7069   -1.0703 H     1    UNL111       0.0618
     37 C20         9.3714    3.2373    1.3275 C.3   1    UNL111      -0.0382
     38 C21        -1.6460    2.3733   -1.9125 C.3   1    UNL111       0.0125
     39 H13        -2.4603    2.1236   -1.2323 H     1    UNL111       0.0456
     40 H14        -1.8756    1.9949   -2.9086 H     1    UNL111       0.0456
     41 H15        -1.5261    3.4559   -1.9538 H     1    UNL111       0.0456
     42 H16        10.6757    3.5345   -4.0955 H     1    UNL111       0.0278
     43 H17        10.9846    1.8027   -3.8240 H     1    UNL111       0.0278
     44 H18        11.8396    3.0227   -2.8499 H     1    UNL111       0.0278
     45 H19         8.7938    4.1007    1.6575 H     1    UNL111       0.0278
     46 H20         9.1027    2.3689    1.9291 H     1    UNL111       0.0278
     47 H21        10.4349    3.4454    1.4444 H     1    UNL111       0.0278
@<TRIPOS>BOND
     1     1     2   ar
     2     2     3   ar
     3     3     4   ar
     4     4     5   ar
     5     5     6   ar
     6     6     1   ar
     7     8     9   ar
     8     6     9   ar
     9     7     8   ar
    10     5     7   ar
    11     8    10    1
    12    10    11   ar
    13    10    12   ar
    14     9    13    1
    15    13    14    1
    16    14    15    1
    17    15    16    1
    18    16    17    1
    19    18    19   ar
    20    19    20   ar
    21    20    21   ar
    22    21    22   ar
    23    17    18   ar
    24    22    17   ar
    25    18    24    1
    26    22    26    1
    27     4    27    1
    28    13    28    1
    29    13    29    1
    30    14    30    1
    31    14    31    1
    32    15    32    1
    33    15    33    1
    34    20    25    1
    35     1    34    1
    36     2    35    1
    37     3    36    1
    38     7    38    1
    39    38    39    1
    40    38    40    1
    41    38    41    1
    42    19    23    1
    43    21    37    1
    44    23    42    1
    45    23    43    1
    46    23    44    1
    47    37    45    1
    48    37    46    1
    49    37    47    1
