@<TRIPOS>MOLECULE
lig
 44 47 0 0 0
SMALL
GASTEIGER

@<TRIPOS>ATOM
      1 C1          2.0123   -1.3940    0.5392 C.ar  1    UNL111      -0.0523
      2 C2          1.1483   -2.5320    0.5532 C.ar  1    UNL111      -0.0611
      3 C3         -0.2313   -2.4263    0.1772 C.ar  1    UNL111      -0.0598
      4 C4         -0.8155   -1.1719   -0.1788 C.ar  1    UNL111      -0.0378
      5 C5          0.0396   -0.0289   -0.0993 C.ar  1    UNL111       0.0472
      6 C6          1.4083   -0.1420    0.2072 C.ar  1    UNL111       0.0035
      7 N          -0.2706    1.2740   -0.2041 N.ar  1    UNL111      -0.3530
      8 CA          0.8584    1.9902   -0.0092 C.ar  1    UNL111       0.0661
      9 C7          1.9433    1.1402    0.2288 C.ar  1    UNL111      -0.0131
     10 C8          0.9315    3.3779   -0.0408 C.2   1    UNL111       0.0881
     11 O1         -0.1792    4.1071   -0.2798 O.co2 1    UNL111      -0.5431
     12 OXT         2.0257    3.9507    0.1521 O.co2 1    UNL111      -0.5431
     13 C9          3.3358    1.5181    0.4517 C.3   1    UNL111      -0.0220
     14 C10         4.0709    1.5703   -0.8891 C.3   1    UNL111      -0.0146
     15 C11         5.5302    1.9663   -0.6556 C.3   1    UNL111       0.0899
     16 O2          6.2125    2.0148   -1.9000 O.3   1    UNL111      -0.4913
     17 C12         7.5001    2.3642   -1.6940 C.ar  1    UNL111       0.1283
     18 C13         8.3705    2.4775   -2.7718 C.ar  1    UNL111       0.0252
     19 C14         9.6963    2.8373   -2.5596 C.ar  1    UNL111       0.0039
     20 C15        10.1516    3.0838   -1.2697 C.ar  1    UNL111       0.0489
     21 C16         9.2812    2.9705   -0.1919 C.ar  1    UNL111      -0.0393
     22 C17         7.9554    2.6107   -0.4040 C.ar  1    UNL111      -0.0179
     23 H1          7.3167    2.5276    0.3869 H     1    UNL111       0.0655
     24 H2         -1.7891   -1.0960   -0.4734 H     1    UNL111       0.0638
     25 H3          3.3747    2.4988    0.9258 H     1    UNL111       0.0315
     26 H4          3.8128    0.7823    1.0991 H     1    UNL111       0.0315
     27 H5          3.5939    2.3061   -1.5366 H     1    UNL111       0.0301
     28 H6          4.0320    0.5896   -1.3633 H     1    UNL111       0.0301
     29 H7          5.5691    2.9471   -0.1815 H     1    UNL111       0.0696
     30 H8          6.0072    1.2306   -0.0081 H     1    UNL111       0.0696
     31 H9          3.0063   -1.4710    0.7546 H     1    UNL111       0.0624
     32 H10         1.5207   -3.4384    0.8364 H     1    UNL111       0.0618
     33 H11        -0.8095   -3.2665    0.1636 H     1    UNL111       0.0618
     34 H12         9.6153    3.1514    0.7547 H     1    UNL111       0.0633
     35 H13        -1.1512    1.6371   -0.3876 H     1    UNL111       0.1659
     36 C18        10.5667    2.9506   -3.6374 C.ar  1    UNL111      -0.0525
     37 C19        10.1113    2.7041   -4.9274 C.ar  1    UNL111      -0.0611
     38 C20         8.7856    2.3443   -5.1395 C.ar  1    UNL111      -0.0611
     39 C21         7.9152    2.2310   -4.0617 C.ar  1    UNL111      -0.0505
     40 CL         11.7606    3.5205   -1.0122 Cl    1    UNL111      -0.0829
     41 H14        11.5395    3.2147   -3.4817 H     1    UNL111       0.0624
     42 H15        10.7500    2.7873   -5.7183 H     1    UNL111       0.0618
     43 H16         8.4514    2.1634   -6.0861 H     1    UNL111       0.0618
     44 H17         6.9423    1.9670   -4.2174 H     1    UNL111       0.0625
@<TRIPOS>BOND
     1     1     2   ar
     2     2     3   ar
     3     3     4   ar
     4     4     5   ar
     5     5     6   ar
     6     6     1   ar
     7     8     9   ar
     8     6     9   ar
     9     7     8   ar
    10     5     7   ar
    11     8    10    1
    12    10    11   ar
    13    10    12   ar
    14     9    13    1
    15    13    14    1
    16    14    15    1
    17    15    16    1
    18    16    17    1
    19    18    19   ar
    20    19    20   ar
    21    20    21   ar
    22    21    22   ar
    23    17    18   ar
    24    22    17   ar
    25    22    23    1
    26     4    24    1
    27    13    25    1
    28    13    26    1
    29    14    27    1
    30    14    28    1
    31    15    29    1
    32    15    30    1
    33     1    31    1
    34     2    32    1
    35     3    33    1
    36    21    34    1
    37     7    35    1
    38    36    37   ar
    39    37    38   ar
    40    38    39   ar
    41    39    18   ar
    42    19    36   ar
    43    20    40    1
    44    36    41    1
    45    37    42    1
    46    38    43    1
    47    39    44    1
